New Load.load_p1rlv628_1 conn=wye bus1=p1rlv628.1 kV=0.12 Vminpu=0.8 Vmaxpu=1.2 model=1 kW=5.466651771327982 kvar=1.2745975671486984 Phases=1 yearly=res_kw_933_pu

New Load.load_p1rlv628_2 conn=wye bus1=p1rlv628.2 kV=0.12 Vminpu=0.8 Vmaxpu=1.2 model=1 kW=5.466651771327982 kvar=1.2745975671486984 Phases=1 yearly=res_kw_933_pu

New Load.load_p1rlv629_1 conn=wye bus1=p1rlv629.1 kV=0.12 Vminpu=0.8 Vmaxpu=1.2 model=1 kW=5.436729579526792 kvar=1.2488470964899614 Phases=1 yearly=res_kw_454_pu

New Load.load_p1rlv629_2 conn=wye bus1=p1rlv629.2 kV=0.12 Vminpu=0.8 Vmaxpu=1.2 model=1 kW=5.436729579526792 kvar=1.2488470964899614 Phases=1 yearly=res_kw_454_pu

New Load.load_p1rlv630_1 conn=wye bus1=p1rlv630.1 kV=0.12 Vminpu=0.8 Vmaxpu=1.2 model=1 kW=2.916803644387601 kvar=0.11499518252231355 Phases=1 yearly=res_kw_1094_pu

New Load.load_p1rlv630_2 conn=wye bus1=p1rlv630.2 kV=0.12 Vminpu=0.8 Vmaxpu=1.2 model=1 kW=2.916803644387601 kvar=0.11499518252231355 Phases=1 yearly=res_kw_1094_pu

New Load.load_p1rlv631_1 conn=wye bus1=p1rlv631.1 kV=0.12 Vminpu=0.8 Vmaxpu=1.2 model=1 kW=2.5137827263873103 kvar=0.7927782724892762 Phases=1 yearly=res_kw_621_pu

New Load.load_p1rlv631_2 conn=wye bus1=p1rlv631.2 kV=0.12 Vminpu=0.8 Vmaxpu=1.2 model=1 kW=2.5137827263873103 kvar=0.7927782724892762 Phases=1 yearly=res_kw_621_pu

New Load.load_p1rlv632_1 conn=wye bus1=p1rlv632.1 kV=0.12 Vminpu=0.8 Vmaxpu=1.2 model=1 kW=1.07594874218897 kvar=0.4942830176942115 Phases=1 yearly=res_kw_366_pu

New Load.load_p1rlv632_2 conn=wye bus1=p1rlv632.2 kV=0.12 Vminpu=0.8 Vmaxpu=1.2 model=1 kW=1.07594874218897 kvar=0.4942830176942115 Phases=1 yearly=res_kw_366_pu

New Load.load_p1rlv633_1 conn=wye bus1=p1rlv633.1 kV=0.12 Vminpu=0.8 Vmaxpu=1.2 model=1 kW=3.6844020253442458 kvar=1.4451491397155931 Phases=1 yearly=res_kw_1258_pu

New Load.load_p1rlv633_2 conn=wye bus1=p1rlv633.2 kV=0.12 Vminpu=0.8 Vmaxpu=1.2 model=1 kW=3.6844020253442458 kvar=1.4451491397155931 Phases=1 yearly=res_kw_1258_pu

New Load.load_p1rlv634_1 conn=wye bus1=p1rlv634.1 kV=0.12 Vminpu=0.8 Vmaxpu=1.2 model=1 kW=3.629714039262861 kvar=1.2034402112399032 Phases=1 yearly=res_kw_203_pu

New Load.load_p1rlv634_2 conn=wye bus1=p1rlv634.2 kV=0.12 Vminpu=0.8 Vmaxpu=1.2 model=1 kW=3.629714039262861 kvar=1.2034402112399032 Phases=1 yearly=res_kw_203_pu

New Load.load_p1rlv635_1 conn=wye bus1=p1rlv635.1 kV=0.12 Vminpu=0.8 Vmaxpu=1.2 model=1 kW=1.07594874218897 kvar=0.4942830176942115 Phases=1 yearly=res_kw_366_pu

New Load.load_p1rlv635_2 conn=wye bus1=p1rlv635.2 kV=0.12 Vminpu=0.8 Vmaxpu=1.2 model=1 kW=1.07594874218897 kvar=0.4942830176942115 Phases=1 yearly=res_kw_366_pu

New Load.load_p1rlv1459_1 conn=wye bus1=p1rlv1459.1 kV=0.12 Vminpu=0.8 Vmaxpu=1.2 model=1 kW=5.286987923172412 kvar=0.912918656895422 Phases=1 yearly=res_kw_75_pu

New Load.load_p1rlv1459_2 conn=wye bus1=p1rlv1459.2 kV=0.12 Vminpu=0.8 Vmaxpu=1.2 model=1 kW=5.286987923172412 kvar=0.912918656895422 Phases=1 yearly=res_kw_75_pu

New Load.load_p1rlv1460_1 conn=wye bus1=p1rlv1460.1 kV=0.12 Vminpu=0.8 Vmaxpu=1.2 model=1 kW=3.6844020253442458 kvar=1.4451491397155931 Phases=1 yearly=res_kw_1258_pu

New Load.load_p1rlv1460_2 conn=wye bus1=p1rlv1460.2 kV=0.12 Vminpu=0.8 Vmaxpu=1.2 model=1 kW=3.6844020253442458 kvar=1.4451491397155931 Phases=1 yearly=res_kw_1258_pu

New Load.load_p1rlv1461_1 conn=wye bus1=p1rlv1461.1 kV=0.12 Vminpu=0.8 Vmaxpu=1.2 model=1 kW=4.198936522204728 kvar=0.9501139000968819 Phases=1 yearly=res_kw_229_pu

New Load.load_p1rlv1461_2 conn=wye bus1=p1rlv1461.2 kV=0.12 Vminpu=0.8 Vmaxpu=1.2 model=1 kW=4.198936522204728 kvar=0.9501139000968819 Phases=1 yearly=res_kw_229_pu

New Load.load_p1rlv1462_1 conn=wye bus1=p1rlv1462.1 kV=0.12 Vminpu=0.8 Vmaxpu=1.2 model=1 kW=4.081735511976485 kvar=0.9882394625849078 Phases=1 yearly=com_kw_14650_pu

New Load.load_p1rlv1462_2 conn=wye bus1=p1rlv1462.2 kV=0.12 Vminpu=0.8 Vmaxpu=1.2 model=1 kW=4.081735511976485 kvar=0.9882394625849078 Phases=1 yearly=com_kw_14650_pu

New Load.load_p1rlv1463 conn=wye bus1=p1rlv1463.1.2.3 kV=0.48 Vminpu=0.8 Vmaxpu=1.2 model=1 kW=17.526104810945753 kvar=4.553692350696916 Phases=3 yearly=com_kw_14032_pu

New Load.load_p1rlv1464_1 conn=wye bus1=p1rlv1464.1 kV=0.12 Vminpu=0.8 Vmaxpu=1.2 model=1 kW=4.359410160991208 kvar=0.7703346328307125 Phases=1 yearly=res_kw_470_pu

New Load.load_p1rlv1464_2 conn=wye bus1=p1rlv1464.2 kV=0.12 Vminpu=0.8 Vmaxpu=1.2 model=1 kW=4.359410160991208 kvar=0.7703346328307125 Phases=1 yearly=res_kw_470_pu

New Load.load_p1rlv1465_1 conn=wye bus1=p1rlv1465.1 kV=0.12 Vminpu=0.8 Vmaxpu=1.2 model=1 kW=1.8801200674575587 kvar=0.53962653273889 Phases=1 yearly=com_kw_13578_pu

New Load.load_p1rlv1465_2 conn=wye bus1=p1rlv1465.2 kV=0.12 Vminpu=0.8 Vmaxpu=1.2 model=1 kW=1.8801200674575587 kvar=0.53962653273889 Phases=1 yearly=com_kw_13578_pu

New Load.load_p1rlv1466_1 conn=wye bus1=p1rlv1466.1 kV=0.12 Vminpu=0.8 Vmaxpu=1.2 model=1 kW=7.088530083600876 kvar=2.6134476319600712 Phases=1 yearly=res_kw_267_pu

New Load.load_p1rlv1466_2 conn=wye bus1=p1rlv1466.2 kV=0.12 Vminpu=0.8 Vmaxpu=1.2 model=1 kW=7.088530083600876 kvar=2.6134476319600712 Phases=1 yearly=res_kw_267_pu

New Load.load_p1rlv1467_1 conn=wye bus1=p1rlv1467.1 kV=0.12 Vminpu=0.8 Vmaxpu=1.2 model=1 kW=2.4402285312138985 kvar=0.9342273883677934 Phases=1 yearly=res_kw_409_pu

New Load.load_p1rlv1467_2 conn=wye bus1=p1rlv1467.2 kV=0.12 Vminpu=0.8 Vmaxpu=1.2 model=1 kW=2.4402285312138985 kvar=0.9342273883677934 Phases=1 yearly=res_kw_409_pu

New Load.load_p1rlv1468_1 conn=wye bus1=p1rlv1468.1 kV=0.12 Vminpu=0.8 Vmaxpu=1.2 model=1 kW=3.6844020253442458 kvar=1.4451491397155931 Phases=1 yearly=res_kw_1258_pu

New Load.load_p1rlv1468_2 conn=wye bus1=p1rlv1468.2 kV=0.12 Vminpu=0.8 Vmaxpu=1.2 model=1 kW=3.6844020253442458 kvar=1.4451491397155931 Phases=1 yearly=res_kw_1258_pu

New Load.load_p1rlv1469_1 conn=wye bus1=p1rlv1469.1 kV=0.12 Vminpu=0.8 Vmaxpu=1.2 model=1 kW=2.6241521841182514 kvar=0.8429304779950015 Phases=1 yearly=res_kw_33_pu

New Load.load_p1rlv1469_2 conn=wye bus1=p1rlv1469.2 kV=0.12 Vminpu=0.8 Vmaxpu=1.2 model=1 kW=2.6241521841182514 kvar=0.8429304779950015 Phases=1 yearly=res_kw_33_pu

New Load.load_p1rlv1470_1 conn=wye bus1=p1rlv1470.1 kV=0.12 Vminpu=0.8 Vmaxpu=1.2 model=1 kW=10.375628907780863 kvar=4.616486224330442 Phases=1 yearly=res_kw_1267_pu

New Load.load_p1rlv1470_2 conn=wye bus1=p1rlv1470.2 kV=0.12 Vminpu=0.8 Vmaxpu=1.2 model=1 kW=10.375628907780863 kvar=4.616486224330442 Phases=1 yearly=res_kw_1267_pu

New Load.load_p1rlv1471_1 conn=wye bus1=p1rlv1471.1 kV=0.12 Vminpu=0.8 Vmaxpu=1.2 model=1 kW=2.4402285312138985 kvar=0.9342273883677934 Phases=1 yearly=res_kw_409_pu

New Load.load_p1rlv1471_2 conn=wye bus1=p1rlv1471.2 kV=0.12 Vminpu=0.8 Vmaxpu=1.2 model=1 kW=2.4402285312138985 kvar=0.9342273883677934 Phases=1 yearly=res_kw_409_pu

New Load.load_p1rlv1472_1 conn=wye bus1=p1rlv1472.1 kV=0.12 Vminpu=0.8 Vmaxpu=1.2 model=1 kW=3.3641909207712115 kvar=0.9284266244461494 Phases=1 yearly=res_kw_523_pu

New Load.load_p1rlv1472_2 conn=wye bus1=p1rlv1472.2 kV=0.12 Vminpu=0.8 Vmaxpu=1.2 model=1 kW=3.3641909207712115 kvar=0.9284266244461494 Phases=1 yearly=res_kw_523_pu

New Load.load_p1rlv1473_1 conn=wye bus1=p1rlv1473.1 kV=0.12 Vminpu=0.8 Vmaxpu=1.2 model=1 kW=4.8861141847383 kvar=1.2417687859549835 Phases=1 yearly=res_kw_549_pu

New Load.load_p1rlv1473_2 conn=wye bus1=p1rlv1473.2 kV=0.12 Vminpu=0.8 Vmaxpu=1.2 model=1 kW=4.8861141847383 kvar=1.2417687859549835 Phases=1 yearly=res_kw_549_pu

New Load.load_p1rlv1474_1 conn=wye bus1=p1rlv1474.1 kV=0.12 Vminpu=0.8 Vmaxpu=1.2 model=1 kW=4.7264639008757365 kvar=1.36553634213978 Phases=1 yearly=res_kw_1220_pu

New Load.load_p1rlv1474_2 conn=wye bus1=p1rlv1474.2 kV=0.12 Vminpu=0.8 Vmaxpu=1.2 model=1 kW=4.7264639008757365 kvar=1.36553634213978 Phases=1 yearly=res_kw_1220_pu

New Load.load_p1rlv1475_1 conn=wye bus1=p1rlv1475.1 kV=0.12 Vminpu=0.8 Vmaxpu=1.2 model=1 kW=3.9548467392187407 kvar=0.784873407244747 Phases=1 yearly=res_kw_47_pu

New Load.load_p1rlv1475_2 conn=wye bus1=p1rlv1475.2 kV=0.12 Vminpu=0.8 Vmaxpu=1.2 model=1 kW=3.9548467392187407 kvar=0.784873407244747 Phases=1 yearly=res_kw_47_pu

New Load.load_p1rlv1476_1 conn=wye bus1=p1rlv1476.1 kV=0.12 Vminpu=0.8 Vmaxpu=1.2 model=1 kW=5.6593015111322105 kvar=1.2761251920573724 Phases=1 yearly=res_kw_324_pu

New Load.load_p1rlv1476_2 conn=wye bus1=p1rlv1476.2 kV=0.12 Vminpu=0.8 Vmaxpu=1.2 model=1 kW=5.6593015111322105 kvar=1.2761251920573724 Phases=1 yearly=res_kw_324_pu

New Load.load_p1rlv1477_1 conn=wye bus1=p1rlv1477.1 kV=0.12 Vminpu=0.8 Vmaxpu=1.2 model=1 kW=2.8808589162778904 kvar=0.2835073949750637 Phases=1 yearly=res_kw_1036_pu

New Load.load_p1rlv1477_2 conn=wye bus1=p1rlv1477.2 kV=0.12 Vminpu=0.8 Vmaxpu=1.2 model=1 kW=2.8808589162778904 kvar=0.2835073949750637 Phases=1 yearly=res_kw_1036_pu

New Load.load_p1rlv1478_1 conn=wye bus1=p1rlv1478.1 kV=0.12 Vminpu=0.8 Vmaxpu=1.2 model=1 kW=2.40000228705824 kvar=1.0173787262529668 Phases=1 yearly=res_kw_1205_pu

New Load.load_p1rlv1478_2 conn=wye bus1=p1rlv1478.2 kV=0.12 Vminpu=0.8 Vmaxpu=1.2 model=1 kW=2.40000228705824 kvar=1.0173787262529668 Phases=1 yearly=res_kw_1205_pu

New Load.load_p1rlv1479_1 conn=wye bus1=p1rlv1479.1 kV=0.12 Vminpu=0.8 Vmaxpu=1.2 model=1 kW=4.4719654544990375 kvar=1.0992469987144322 Phases=1 yearly=res_kw_1157_pu

New Load.load_p1rlv1479_2 conn=wye bus1=p1rlv1479.2 kV=0.12 Vminpu=0.8 Vmaxpu=1.2 model=1 kW=4.4719654544990375 kvar=1.0992469987144322 Phases=1 yearly=res_kw_1157_pu

New Load.load_p1rlv1480_1 conn=wye bus1=p1rlv1480.1 kV=0.12 Vminpu=0.8 Vmaxpu=1.2 model=1 kW=6.224817813202313 kvar=1.7553010009693135 Phases=1 yearly=res_kw_710_pu

New Load.load_p1rlv1480_2 conn=wye bus1=p1rlv1480.2 kV=0.12 Vminpu=0.8 Vmaxpu=1.2 model=1 kW=6.224817813202313 kvar=1.7553010009693135 Phases=1 yearly=res_kw_710_pu

New Load.load_p1rlv1481_1 conn=wye bus1=p1rlv1481.1 kV=0.12 Vminpu=0.8 Vmaxpu=1.2 model=1 kW=2.40000228705824 kvar=1.0173787262529668 Phases=1 yearly=res_kw_1205_pu

New Load.load_p1rlv1481_2 conn=wye bus1=p1rlv1481.2 kV=0.12 Vminpu=0.8 Vmaxpu=1.2 model=1 kW=2.40000228705824 kvar=1.0173787262529668 Phases=1 yearly=res_kw_1205_pu

New Load.load_p1rlv1482_1 conn=wye bus1=p1rlv1482.1 kV=0.12 Vminpu=0.8 Vmaxpu=1.2 model=1 kW=2.6241521841182514 kvar=0.8429304779950015 Phases=1 yearly=res_kw_33_pu

New Load.load_p1rlv1482_2 conn=wye bus1=p1rlv1482.2 kV=0.12 Vminpu=0.8 Vmaxpu=1.2 model=1 kW=2.6241521841182514 kvar=0.8429304779950015 Phases=1 yearly=res_kw_33_pu

New Load.load_p1rlv1483_1 conn=wye bus1=p1rlv1483.1 kV=0.12 Vminpu=0.8 Vmaxpu=1.2 model=1 kW=6.391914767972083 kvar=1.3469352347477417 Phases=1 yearly=res_kw_2_pu

New Load.load_p1rlv1483_2 conn=wye bus1=p1rlv1483.2 kV=0.12 Vminpu=0.8 Vmaxpu=1.2 model=1 kW=6.391914767972083 kvar=1.3469352347477417 Phases=1 yearly=res_kw_2_pu

New Load.load_p1rlv1484_1 conn=wye bus1=p1rlv1484.1 kV=0.12 Vminpu=0.8 Vmaxpu=1.2 model=1 kW=10.375628907780863 kvar=4.616486224330442 Phases=1 yearly=res_kw_1267_pu

New Load.load_p1rlv1484_2 conn=wye bus1=p1rlv1484.2 kV=0.12 Vminpu=0.8 Vmaxpu=1.2 model=1 kW=10.375628907780863 kvar=4.616486224330442 Phases=1 yearly=res_kw_1267_pu

New Load.load_p1rlv1485_1 conn=wye bus1=p1rlv1485.1 kV=0.12 Vminpu=0.8 Vmaxpu=1.2 model=1 kW=5.991917116566147 kvar=1.6692124001399427 Phases=1 yearly=res_kw_314_pu

New Load.load_p1rlv1485_2 conn=wye bus1=p1rlv1485.2 kV=0.12 Vminpu=0.8 Vmaxpu=1.2 model=1 kW=5.991917116566147 kvar=1.6692124001399427 Phases=1 yearly=res_kw_314_pu

New Load.load_p1rlv1486_1 conn=wye bus1=p1rlv1486.1 kV=0.12 Vminpu=0.8 Vmaxpu=1.2 model=1 kW=5.436729579526792 kvar=1.2488470964899614 Phases=1 yearly=res_kw_454_pu

New Load.load_p1rlv1486_2 conn=wye bus1=p1rlv1486.2 kV=0.12 Vminpu=0.8 Vmaxpu=1.2 model=1 kW=5.436729579526792 kvar=1.2488470964899614 Phases=1 yearly=res_kw_454_pu

New Load.load_p1rlv1487_1 conn=wye bus1=p1rlv1487.1 kV=0.12 Vminpu=0.8 Vmaxpu=1.2 model=1 kW=5.02113589877799 kvar=1.330838974667839 Phases=1 yearly=res_kw_207_pu

New Load.load_p1rlv1487_2 conn=wye bus1=p1rlv1487.2 kV=0.12 Vminpu=0.8 Vmaxpu=1.2 model=1 kW=5.02113589877799 kvar=1.330838974667839 Phases=1 yearly=res_kw_207_pu

New Load.load_p1rlv1488_1 conn=wye bus1=p1rlv1488.1 kV=0.12 Vminpu=0.8 Vmaxpu=1.2 model=1 kW=1.8801200674575587 kvar=0.53962653273889 Phases=1 yearly=com_kw_13578_pu

New Load.load_p1rlv1488_2 conn=wye bus1=p1rlv1488.2 kV=0.12 Vminpu=0.8 Vmaxpu=1.2 model=1 kW=1.8801200674575587 kvar=0.53962653273889 Phases=1 yearly=com_kw_13578_pu

New Load.load_p1rlv1489_1 conn=wye bus1=p1rlv1489.1 kV=0.12 Vminpu=0.8 Vmaxpu=1.2 model=1 kW=2.40000228705824 kvar=1.0173787262529668 Phases=1 yearly=res_kw_1205_pu

New Load.load_p1rlv1489_2 conn=wye bus1=p1rlv1489.2 kV=0.12 Vminpu=0.8 Vmaxpu=1.2 model=1 kW=2.40000228705824 kvar=1.0173787262529668 Phases=1 yearly=res_kw_1205_pu

New Load.load_p1rlv1490_1 conn=wye bus1=p1rlv1490.1 kV=0.12 Vminpu=0.8 Vmaxpu=1.2 model=1 kW=3.4468581914223817 kvar=1.1411197390818253 Phases=1 yearly=res_kw_250_pu

New Load.load_p1rlv1490_2 conn=wye bus1=p1rlv1490.2 kV=0.12 Vminpu=0.8 Vmaxpu=1.2 model=1 kW=3.4468581914223817 kvar=1.1411197390818253 Phases=1 yearly=res_kw_250_pu

New Load.load_p1rlv1491_1 conn=wye bus1=p1rlv1491.1 kV=0.12 Vminpu=0.8 Vmaxpu=1.2 model=1 kW=2.4402285312138985 kvar=0.9342273883677934 Phases=1 yearly=res_kw_409_pu

New Load.load_p1rlv1491_2 conn=wye bus1=p1rlv1491.2 kV=0.12 Vminpu=0.8 Vmaxpu=1.2 model=1 kW=2.4402285312138985 kvar=0.9342273883677934 Phases=1 yearly=res_kw_409_pu

New Load.load_p1rlv1492_1 conn=wye bus1=p1rlv1492.1 kV=0.12 Vminpu=0.8 Vmaxpu=1.2 model=1 kW=4.273181988238683 kvar=1.110614151275591 Phases=1 yearly=res_kw_1113_pu

New Load.load_p1rlv1492_2 conn=wye bus1=p1rlv1492.2 kV=0.12 Vminpu=0.8 Vmaxpu=1.2 model=1 kW=4.273181988238683 kvar=1.110614151275591 Phases=1 yearly=res_kw_1113_pu

New Load.load_p1rlv1493 conn=wye bus1=p1rlv1493.1.2.3 kV=0.48 Vminpu=0.8 Vmaxpu=1.2 model=1 kW=35.575751352084666 kvar=8.679058106481836 Phases=3 yearly=com_kw_13354_pu

New Load.load_p1rlv1494_1 conn=wye bus1=p1rlv1494.1 kV=0.12 Vminpu=0.8 Vmaxpu=1.2 model=1 kW=2.3448408768561366 kvar=0.6799254266592899 Phases=1 yearly=com_kw_13661_pu

New Load.load_p1rlv1494_2 conn=wye bus1=p1rlv1494.2 kV=0.12 Vminpu=0.8 Vmaxpu=1.2 model=1 kW=2.3448408768561366 kvar=0.6799254266592899 Phases=1 yearly=com_kw_13661_pu

New Load.load_p1rlv1495_1 conn=wye bus1=p1rlv1495.1 kV=0.12 Vminpu=0.8 Vmaxpu=1.2 model=1 kW=4.4719654544990375 kvar=1.0992469987144322 Phases=1 yearly=res_kw_1157_pu

New Load.load_p1rlv1495_2 conn=wye bus1=p1rlv1495.2 kV=0.12 Vminpu=0.8 Vmaxpu=1.2 model=1 kW=4.4719654544990375 kvar=1.0992469987144322 Phases=1 yearly=res_kw_1157_pu

New Load.load_p1rlv1496_1 conn=wye bus1=p1rlv1496.1 kV=0.12 Vminpu=0.8 Vmaxpu=1.2 model=1 kW=0.8155215330625105 kvar=0.30217793028689777 Phases=1 yearly=res_kw_1270_pu

New Load.load_p1rlv1496_2 conn=wye bus1=p1rlv1496.2 kV=0.12 Vminpu=0.8 Vmaxpu=1.2 model=1 kW=0.8155215330625105 kvar=0.30217793028689777 Phases=1 yearly=res_kw_1270_pu

New Load.load_p1rlv1497_1 conn=wye bus1=p1rlv1497.1 kV=0.12 Vminpu=0.8 Vmaxpu=1.2 model=1 kW=3.3641909207712115 kvar=0.9284266244461494 Phases=1 yearly=res_kw_523_pu

New Load.load_p1rlv1497_2 conn=wye bus1=p1rlv1497.2 kV=0.12 Vminpu=0.8 Vmaxpu=1.2 model=1 kW=3.3641909207712115 kvar=0.9284266244461494 Phases=1 yearly=res_kw_523_pu

New Load.load_p1rlv1498_1 conn=wye bus1=p1rlv1498.1 kV=0.12 Vminpu=0.8 Vmaxpu=1.2 model=1 kW=9.666699253995569 kvar=2.090221480167897 Phases=1 yearly=res_kw_46_pu

New Load.load_p1rlv1498_2 conn=wye bus1=p1rlv1498.2 kV=0.12 Vminpu=0.8 Vmaxpu=1.2 model=1 kW=9.666699253995569 kvar=2.090221480167897 Phases=1 yearly=res_kw_46_pu

New Load.load_p1rlv1499_1 conn=wye bus1=p1rlv1499.1 kV=0.12 Vminpu=0.8 Vmaxpu=1.2 model=1 kW=2.40000228705824 kvar=1.0173787262529668 Phases=1 yearly=res_kw_1205_pu

New Load.load_p1rlv1499_2 conn=wye bus1=p1rlv1499.2 kV=0.12 Vminpu=0.8 Vmaxpu=1.2 model=1 kW=2.40000228705824 kvar=1.0173787262529668 Phases=1 yearly=res_kw_1205_pu

New Load.load_p1rlv1500_1 conn=wye bus1=p1rlv1500.1 kV=0.12 Vminpu=0.8 Vmaxpu=1.2 model=1 kW=3.469755020859998 kvar=0.8941520384931253 Phases=1 yearly=res_kw_4_pu

New Load.load_p1rlv1500_2 conn=wye bus1=p1rlv1500.2 kV=0.12 Vminpu=0.8 Vmaxpu=1.2 model=1 kW=3.469755020859998 kvar=0.8941520384931253 Phases=1 yearly=res_kw_4_pu

New Load.load_p1rlv1501_1 conn=wye bus1=p1rlv1501.1 kV=0.12 Vminpu=0.8 Vmaxpu=1.2 model=1 kW=1.07594874218897 kvar=0.4942830176942115 Phases=1 yearly=res_kw_366_pu

New Load.load_p1rlv1501_2 conn=wye bus1=p1rlv1501.2 kV=0.12 Vminpu=0.8 Vmaxpu=1.2 model=1 kW=1.07594874218897 kvar=0.4942830176942115 Phases=1 yearly=res_kw_366_pu

New Load.load_p1rlv1502_1 conn=wye bus1=p1rlv1502.1 kV=0.12 Vminpu=0.8 Vmaxpu=1.2 model=1 kW=3.469755020859998 kvar=0.8941520384931253 Phases=1 yearly=res_kw_4_pu

New Load.load_p1rlv1502_2 conn=wye bus1=p1rlv1502.2 kV=0.12 Vminpu=0.8 Vmaxpu=1.2 model=1 kW=3.469755020859998 kvar=0.8941520384931253 Phases=1 yearly=res_kw_4_pu

New Load.load_p1rlv1503_1 conn=wye bus1=p1rlv1503.1 kV=0.12 Vminpu=0.8 Vmaxpu=1.2 model=1 kW=3.6844020253442458 kvar=1.4451491397155931 Phases=1 yearly=res_kw_1258_pu

New Load.load_p1rlv1503_2 conn=wye bus1=p1rlv1503.2 kV=0.12 Vminpu=0.8 Vmaxpu=1.2 model=1 kW=3.6844020253442458 kvar=1.4451491397155931 Phases=1 yearly=res_kw_1258_pu

New Load.load_p1rlv1504_1 conn=wye bus1=p1rlv1504.1 kV=0.12 Vminpu=0.8 Vmaxpu=1.2 model=1 kW=5.947053638705014 kvar=1.2332751328813323 Phases=1 yearly=res_kw_245_pu

New Load.load_p1rlv1504_2 conn=wye bus1=p1rlv1504.2 kV=0.12 Vminpu=0.8 Vmaxpu=1.2 model=1 kW=5.947053638705014 kvar=1.2332751328813323 Phases=1 yearly=res_kw_245_pu

New Load.load_p1rlv1505_1 conn=wye bus1=p1rlv1505.1 kV=0.12 Vminpu=0.8 Vmaxpu=1.2 model=1 kW=2.1376631749204993 kvar=0.6218033466021168 Phases=1 yearly=res_kw_93_pu

New Load.load_p1rlv1505_2 conn=wye bus1=p1rlv1505.2 kV=0.12 Vminpu=0.8 Vmaxpu=1.2 model=1 kW=2.1376631749204993 kvar=0.6218033466021168 Phases=1 yearly=res_kw_93_pu

New Load.load_p1rlv1506_1 conn=wye bus1=p1rlv1506.1 kV=0.12 Vminpu=0.8 Vmaxpu=1.2 model=1 kW=3.460037762068802 kvar=0.6117019426679855 Phases=1 yearly=res_kw_205_pu

New Load.load_p1rlv1506_2 conn=wye bus1=p1rlv1506.2 kV=0.12 Vminpu=0.8 Vmaxpu=1.2 model=1 kW=3.460037762068802 kvar=0.6117019426679855 Phases=1 yearly=res_kw_205_pu

New Load.load_p1rlv1507_1 conn=wye bus1=p1rlv1507.1 kV=0.12 Vminpu=0.8 Vmaxpu=1.2 model=1 kW=5.6593015111322105 kvar=1.2761251920573724 Phases=1 yearly=res_kw_324_pu

New Load.load_p1rlv1507_2 conn=wye bus1=p1rlv1507.2 kV=0.12 Vminpu=0.8 Vmaxpu=1.2 model=1 kW=5.6593015111322105 kvar=1.2761251920573724 Phases=1 yearly=res_kw_324_pu

New Load.load_p1rlv1508_1 conn=wye bus1=p1rlv1508.1 kV=0.12 Vminpu=0.8 Vmaxpu=1.2 model=1 kW=5.246790054249551 kvar=0.8308813908499331 Phases=1 yearly=res_kw_96_pu

New Load.load_p1rlv1508_2 conn=wye bus1=p1rlv1508.2 kV=0.12 Vminpu=0.8 Vmaxpu=1.2 model=1 kW=5.246790054249551 kvar=0.8308813908499331 Phases=1 yearly=res_kw_96_pu

New Load.load_p1rlv1509_1 conn=wye bus1=p1rlv1509.1 kV=0.12 Vminpu=0.8 Vmaxpu=1.2 model=1 kW=7.088530083600876 kvar=2.6134476319600712 Phases=1 yearly=res_kw_267_pu

New Load.load_p1rlv1509_2 conn=wye bus1=p1rlv1509.2 kV=0.12 Vminpu=0.8 Vmaxpu=1.2 model=1 kW=7.088530083600876 kvar=2.6134476319600712 Phases=1 yearly=res_kw_267_pu

New Load.load_p1rlv1510_1 conn=wye bus1=p1rlv1510.1 kV=0.12 Vminpu=0.8 Vmaxpu=1.2 model=1 kW=6.702223593657906 kvar=1.4906391030592414 Phases=1 yearly=res_kw_199_pu

New Load.load_p1rlv1510_2 conn=wye bus1=p1rlv1510.2 kV=0.12 Vminpu=0.8 Vmaxpu=1.2 model=1 kW=6.702223593657906 kvar=1.4906391030592414 Phases=1 yearly=res_kw_199_pu

New Load.load_p1rlv1511_1 conn=wye bus1=p1rlv1511.1 kV=0.12 Vminpu=0.8 Vmaxpu=1.2 model=1 kW=6.326714615561071 kvar=1.6676010778457313 Phases=1 yearly=res_kw_7_pu

New Load.load_p1rlv1511_2 conn=wye bus1=p1rlv1511.2 kV=0.12 Vminpu=0.8 Vmaxpu=1.2 model=1 kW=6.326714615561071 kvar=1.6676010778457313 Phases=1 yearly=res_kw_7_pu

New Load.load_p1rlv1512_1 conn=wye bus1=p1rlv1512.1 kV=0.12 Vminpu=0.8 Vmaxpu=1.2 model=1 kW=3.8748715750127736 kvar=1.5614372175332516 Phases=1 yearly=res_kw_517_pu

New Load.load_p1rlv1512_2 conn=wye bus1=p1rlv1512.2 kV=0.12 Vminpu=0.8 Vmaxpu=1.2 model=1 kW=3.8748715750127736 kvar=1.5614372175332516 Phases=1 yearly=res_kw_517_pu

New Load.load_p1rlv1513_1 conn=wye bus1=p1rlv1513.1 kV=0.12 Vminpu=0.8 Vmaxpu=1.2 model=1 kW=4.615759315917863 kvar=1.2136246618425777 Phases=1 yearly=res_kw_1190_pu

New Load.load_p1rlv1513_2 conn=wye bus1=p1rlv1513.2 kV=0.12 Vminpu=0.8 Vmaxpu=1.2 model=1 kW=4.615759315917863 kvar=1.2136246618425777 Phases=1 yearly=res_kw_1190_pu

New Load.load_p1rlv1514_1 conn=wye bus1=p1rlv1514.1 kV=0.12 Vminpu=0.8 Vmaxpu=1.2 model=1 kW=3.8029744718879392 kvar=1.1462670306842289 Phases=1 yearly=res_kw_263_pu

New Load.load_p1rlv1514_2 conn=wye bus1=p1rlv1514.2 kV=0.12 Vminpu=0.8 Vmaxpu=1.2 model=1 kW=3.8029744718879392 kvar=1.1462670306842289 Phases=1 yearly=res_kw_263_pu

New Load.load_p1rlv1515_1 conn=wye bus1=p1rlv1515.1 kV=0.12 Vminpu=0.8 Vmaxpu=1.2 model=1 kW=2.40000228705824 kvar=1.0173787262529668 Phases=1 yearly=res_kw_1205_pu

New Load.load_p1rlv1515_2 conn=wye bus1=p1rlv1515.2 kV=0.12 Vminpu=0.8 Vmaxpu=1.2 model=1 kW=2.40000228705824 kvar=1.0173787262529668 Phases=1 yearly=res_kw_1205_pu

New Load.load_p1rlv1516_1 conn=wye bus1=p1rlv1516.1 kV=0.12 Vminpu=0.8 Vmaxpu=1.2 model=1 kW=3.629714039262861 kvar=1.2034402112399032 Phases=1 yearly=res_kw_203_pu

New Load.load_p1rlv1516_2 conn=wye bus1=p1rlv1516.2 kV=0.12 Vminpu=0.8 Vmaxpu=1.2 model=1 kW=3.629714039262861 kvar=1.2034402112399032 Phases=1 yearly=res_kw_203_pu

New Load.load_p1rlv1517_1 conn=wye bus1=p1rlv1517.1 kV=0.12 Vminpu=0.8 Vmaxpu=1.2 model=1 kW=1.6746299650392789 kvar=0.594727774010976 Phases=1 yearly=res_kw_1276_pu

New Load.load_p1rlv1517_2 conn=wye bus1=p1rlv1517.2 kV=0.12 Vminpu=0.8 Vmaxpu=1.2 model=1 kW=1.6746299650392789 kvar=0.594727774010976 Phases=1 yearly=res_kw_1276_pu

New Load.load_p1rlv1518_1 conn=wye bus1=p1rlv1518.1 kV=0.12 Vminpu=0.8 Vmaxpu=1.2 model=1 kW=3.8748715750127736 kvar=1.5614372175332516 Phases=1 yearly=res_kw_517_pu

New Load.load_p1rlv1518_2 conn=wye bus1=p1rlv1518.2 kV=0.12 Vminpu=0.8 Vmaxpu=1.2 model=1 kW=3.8748715750127736 kvar=1.5614372175332516 Phases=1 yearly=res_kw_517_pu

New Load.load_p1rlv1519_1 conn=wye bus1=p1rlv1519.1 kV=0.12 Vminpu=0.8 Vmaxpu=1.2 model=1 kW=1.8914832317680952 kvar=0.4701288429802831 Phases=1 yearly=com_kw_13018_pu

New Load.load_p1rlv1519_2 conn=wye bus1=p1rlv1519.2 kV=0.12 Vminpu=0.8 Vmaxpu=1.2 model=1 kW=1.8914832317680952 kvar=0.4701288429802831 Phases=1 yearly=com_kw_13018_pu

New Load.load_p1rlv1520_1 conn=wye bus1=p1rlv1520.1 kV=0.12 Vminpu=0.8 Vmaxpu=1.2 model=1 kW=3.9060227283575606 kvar=0.8578020352767629 Phases=1 yearly=res_kw_278_pu

New Load.load_p1rlv1520_2 conn=wye bus1=p1rlv1520.2 kV=0.12 Vminpu=0.8 Vmaxpu=1.2 model=1 kW=3.9060227283575606 kvar=0.8578020352767629 Phases=1 yearly=res_kw_278_pu

New Load.load_p1rlv1521_1 conn=wye bus1=p1rlv1521.1 kV=0.12 Vminpu=0.8 Vmaxpu=1.2 model=1 kW=2.40000228705824 kvar=1.0173787262529668 Phases=1 yearly=res_kw_1205_pu

New Load.load_p1rlv1521_2 conn=wye bus1=p1rlv1521.2 kV=0.12 Vminpu=0.8 Vmaxpu=1.2 model=1 kW=2.40000228705824 kvar=1.0173787262529668 Phases=1 yearly=res_kw_1205_pu

New Load.load_p1rlv1522_1 conn=wye bus1=p1rlv1522.1 kV=0.12 Vminpu=0.8 Vmaxpu=1.2 model=1 kW=11.519913645766726 kvar=1.865620446374389 Phases=1 yearly=res_kw_754_pu

New Load.load_p1rlv1522_2 conn=wye bus1=p1rlv1522.2 kV=0.12 Vminpu=0.8 Vmaxpu=1.2 model=1 kW=11.519913645766726 kvar=1.865620446374389 Phases=1 yearly=res_kw_754_pu

New Load.load_p1rlv1523_1 conn=wye bus1=p1rlv1523.1 kV=0.12 Vminpu=0.8 Vmaxpu=1.2 model=1 kW=3.789884331965197 kvar=1.0036576715582408 Phases=1 yearly=res_kw_670_pu

New Load.load_p1rlv1523_2 conn=wye bus1=p1rlv1523.2 kV=0.12 Vminpu=0.8 Vmaxpu=1.2 model=1 kW=3.789884331965197 kvar=1.0036576715582408 Phases=1 yearly=res_kw_670_pu

New Load.load_p1rlv1524_1 conn=wye bus1=p1rlv1524.1 kV=0.12 Vminpu=0.8 Vmaxpu=1.2 model=1 kW=1.8914832317680952 kvar=0.4701288429802831 Phases=1 yearly=com_kw_13018_pu

New Load.load_p1rlv1524_2 conn=wye bus1=p1rlv1524.2 kV=0.12 Vminpu=0.8 Vmaxpu=1.2 model=1 kW=1.8914832317680952 kvar=0.4701288429802831 Phases=1 yearly=com_kw_13018_pu

New Load.load_p1rlv1525_1 conn=wye bus1=p1rlv1525.1 kV=0.12 Vminpu=0.8 Vmaxpu=1.2 model=1 kW=5.1496269559453545 kvar=1.5323145223091108 Phases=1 yearly=com_kw_14231_pu

New Load.load_p1rlv1525_2 conn=wye bus1=p1rlv1525.2 kV=0.12 Vminpu=0.8 Vmaxpu=1.2 model=1 kW=5.1496269559453545 kvar=1.5323145223091108 Phases=1 yearly=com_kw_14231_pu

New Load.load_p1rlv1526_1 conn=wye bus1=p1rlv1526.1 kV=0.12 Vminpu=0.8 Vmaxpu=1.2 model=1 kW=3.013000258801837 kvar=0.6644912672412583 Phases=1 yearly=com_kw_13887_pu

New Load.load_p1rlv1526_2 conn=wye bus1=p1rlv1526.2 kV=0.12 Vminpu=0.8 Vmaxpu=1.2 model=1 kW=3.013000258801837 kvar=0.6644912672412583 Phases=1 yearly=com_kw_13887_pu

New Load.load_p1rlv1527_1 conn=wye bus1=p1rlv1527.1 kV=0.12 Vminpu=0.8 Vmaxpu=1.2 model=1 kW=4.737995147424034 kvar=0.27793880247771546 Phases=1 yearly=com_kw_14277_pu

New Load.load_p1rlv1527_2 conn=wye bus1=p1rlv1527.2 kV=0.12 Vminpu=0.8 Vmaxpu=1.2 model=1 kW=4.737995147424034 kvar=0.27793880247771546 Phases=1 yearly=com_kw_14277_pu

New Load.load_p1rlv1528_1 conn=wye bus1=p1rlv1528.1 kV=0.12 Vminpu=0.8 Vmaxpu=1.2 model=1 kW=3.789884331965197 kvar=1.0036576715582408 Phases=1 yearly=res_kw_670_pu

New Load.load_p1rlv1528_2 conn=wye bus1=p1rlv1528.2 kV=0.12 Vminpu=0.8 Vmaxpu=1.2 model=1 kW=3.789884331965197 kvar=1.0036576715582408 Phases=1 yearly=res_kw_670_pu

New Load.load_p1rlv1529_1 conn=wye bus1=p1rlv1529.1 kV=0.12 Vminpu=0.8 Vmaxpu=1.2 model=1 kW=5.1496269559453545 kvar=1.5323145223091108 Phases=1 yearly=com_kw_14231_pu

New Load.load_p1rlv1529_2 conn=wye bus1=p1rlv1529.2 kV=0.12 Vminpu=0.8 Vmaxpu=1.2 model=1 kW=5.1496269559453545 kvar=1.5323145223091108 Phases=1 yearly=com_kw_14231_pu

New Load.load_p1rlv1530_1 conn=wye bus1=p1rlv1530.1 kV=0.12 Vminpu=0.8 Vmaxpu=1.2 model=1 kW=2.242446440461792 kvar=0.599196925582727 Phases=1 yearly=com_kw_14904_pu

New Load.load_p1rlv1530_2 conn=wye bus1=p1rlv1530.2 kV=0.12 Vminpu=0.8 Vmaxpu=1.2 model=1 kW=2.242446440461792 kvar=0.599196925582727 Phases=1 yearly=com_kw_14904_pu

New Load.load_p1rlv1531_1 conn=wye bus1=p1rlv1531.1 kV=0.12 Vminpu=0.8 Vmaxpu=1.2 model=1 kW=3.629714039262861 kvar=1.2034402112399032 Phases=1 yearly=res_kw_203_pu

New Load.load_p1rlv1531_2 conn=wye bus1=p1rlv1531.2 kV=0.12 Vminpu=0.8 Vmaxpu=1.2 model=1 kW=3.629714039262861 kvar=1.2034402112399032 Phases=1 yearly=res_kw_203_pu

New Load.load_p1rlv1532_1 conn=wye bus1=p1rlv1532.1 kV=0.12 Vminpu=0.8 Vmaxpu=1.2 model=1 kW=7.259772519581312 kvar=1.3210086815250959 Phases=1 yearly=res_kw_128_pu

New Load.load_p1rlv1532_2 conn=wye bus1=p1rlv1532.2 kV=0.12 Vminpu=0.8 Vmaxpu=1.2 model=1 kW=7.259772519581312 kvar=1.3210086815250959 Phases=1 yearly=res_kw_128_pu

New Load.load_p1rlv1533_1 conn=wye bus1=p1rlv1533.1 kV=0.12 Vminpu=0.8 Vmaxpu=1.2 model=1 kW=3.789884331965197 kvar=1.0036576715582408 Phases=1 yearly=res_kw_670_pu

New Load.load_p1rlv1533_2 conn=wye bus1=p1rlv1533.2 kV=0.12 Vminpu=0.8 Vmaxpu=1.2 model=1 kW=3.789884331965197 kvar=1.0036576715582408 Phases=1 yearly=res_kw_670_pu

New Load.load_p1rlv1534_1 conn=wye bus1=p1rlv1534.1 kV=0.12 Vminpu=0.8 Vmaxpu=1.2 model=1 kW=5.436729579526792 kvar=1.2488470964899614 Phases=1 yearly=res_kw_454_pu

New Load.load_p1rlv1534_2 conn=wye bus1=p1rlv1534.2 kV=0.12 Vminpu=0.8 Vmaxpu=1.2 model=1 kW=5.436729579526792 kvar=1.2488470964899614 Phases=1 yearly=res_kw_454_pu

New Load.load_p1rlv1535_1 conn=wye bus1=p1rlv1535.1 kV=0.12 Vminpu=0.8 Vmaxpu=1.2 model=1 kW=6.520159505202592 kvar=1.1378587223610979 Phases=1 yearly=res_kw_879_pu

New Load.load_p1rlv1535_2 conn=wye bus1=p1rlv1535.2 kV=0.12 Vminpu=0.8 Vmaxpu=1.2 model=1 kW=6.520159505202592 kvar=1.1378587223610979 Phases=1 yearly=res_kw_879_pu

New Load.load_p1rlv1536_1 conn=wye bus1=p1rlv1536.1 kV=0.12 Vminpu=0.8 Vmaxpu=1.2 model=1 kW=4.712617748150944 kvar=1.0554842044862125 Phases=1 yearly=res_kw_828_pu

New Load.load_p1rlv1536_2 conn=wye bus1=p1rlv1536.2 kV=0.12 Vminpu=0.8 Vmaxpu=1.2 model=1 kW=4.712617748150944 kvar=1.0554842044862125 Phases=1 yearly=res_kw_828_pu

New Load.load_p1rlv1537_1 conn=wye bus1=p1rlv1537.1 kV=0.12 Vminpu=0.8 Vmaxpu=1.2 model=1 kW=5.991917116566147 kvar=1.6692124001399427 Phases=1 yearly=res_kw_314_pu

New Load.load_p1rlv1537_2 conn=wye bus1=p1rlv1537.2 kV=0.12 Vminpu=0.8 Vmaxpu=1.2 model=1 kW=5.991917116566147 kvar=1.6692124001399427 Phases=1 yearly=res_kw_314_pu

New Load.load_p1rlv1538_1 conn=wye bus1=p1rlv1538.1 kV=0.12 Vminpu=0.8 Vmaxpu=1.2 model=1 kW=2.6241521841182514 kvar=0.8429304779950015 Phases=1 yearly=res_kw_33_pu

New Load.load_p1rlv1538_2 conn=wye bus1=p1rlv1538.2 kV=0.12 Vminpu=0.8 Vmaxpu=1.2 model=1 kW=2.6241521841182514 kvar=0.8429304779950015 Phases=1 yearly=res_kw_33_pu

New Load.load_p1rlv1539_1 conn=wye bus1=p1rlv1539.1 kV=0.12 Vminpu=0.8 Vmaxpu=1.2 model=1 kW=3.3701610259235064 kvar=1.065454990641787 Phases=1 yearly=res_kw_1037_pu

New Load.load_p1rlv1539_2 conn=wye bus1=p1rlv1539.2 kV=0.12 Vminpu=0.8 Vmaxpu=1.2 model=1 kW=3.3701610259235064 kvar=1.065454990641787 Phases=1 yearly=res_kw_1037_pu

New Load.load_p1rlv1540_1 conn=wye bus1=p1rlv1540.1 kV=0.12 Vminpu=0.8 Vmaxpu=1.2 model=1 kW=7.088530083600876 kvar=2.6134476319600712 Phases=1 yearly=res_kw_267_pu

New Load.load_p1rlv1540_2 conn=wye bus1=p1rlv1540.2 kV=0.12 Vminpu=0.8 Vmaxpu=1.2 model=1 kW=7.088530083600876 kvar=2.6134476319600712 Phases=1 yearly=res_kw_267_pu

New Load.load_p1rlv1541_1 conn=wye bus1=p1rlv1541.1 kV=0.12 Vminpu=0.8 Vmaxpu=1.2 model=1 kW=5.436729579526792 kvar=1.2488470964899614 Phases=1 yearly=res_kw_454_pu

New Load.load_p1rlv1541_2 conn=wye bus1=p1rlv1541.2 kV=0.12 Vminpu=0.8 Vmaxpu=1.2 model=1 kW=5.436729579526792 kvar=1.2488470964899614 Phases=1 yearly=res_kw_454_pu
