New Load.load_p1rlv2106_1 conn=wye bus1=p1rlv2106.1 kV=0.12 Vminpu=0.8 Vmaxpu=1.2 model=1 kW=3.460037762068802 kvar=0.6117019426679855 Phases=1 yearly=res_kw_205_pu

New Load.load_p1rlv2106_2 conn=wye bus1=p1rlv2106.2 kV=0.12 Vminpu=0.8 Vmaxpu=1.2 model=1 kW=3.460037762068802 kvar=0.6117019426679855 Phases=1 yearly=res_kw_205_pu

New Load.load_p1rlv2107_1 conn=wye bus1=p1rlv2107.1 kV=0.12 Vminpu=0.8 Vmaxpu=1.2 model=1 kW=5.723135606665604 kvar=1.5038194991101048 Phases=1 yearly=res_kw_1228_pu

New Load.load_p1rlv2107_2 conn=wye bus1=p1rlv2107.2 kV=0.12 Vminpu=0.8 Vmaxpu=1.2 model=1 kW=5.723135606665604 kvar=1.5038194991101048 Phases=1 yearly=res_kw_1228_pu

New Load.load_p1rlv2108_1 conn=wye bus1=p1rlv2108.1 kV=0.12 Vminpu=0.8 Vmaxpu=1.2 model=1 kW=7.088530083600876 kvar=2.6134476319600712 Phases=1 yearly=res_kw_267_pu

New Load.load_p1rlv2108_2 conn=wye bus1=p1rlv2108.2 kV=0.12 Vminpu=0.8 Vmaxpu=1.2 model=1 kW=7.088530083600876 kvar=2.6134476319600712 Phases=1 yearly=res_kw_267_pu

New Load.load_p1rlv2109_1 conn=wye bus1=p1rlv2109.1 kV=0.12 Vminpu=0.8 Vmaxpu=1.2 model=1 kW=4.530943241329597 kvar=1.22568816537114 Phases=1 yearly=res_kw_908_pu

New Load.load_p1rlv2109_2 conn=wye bus1=p1rlv2109.2 kV=0.12 Vminpu=0.8 Vmaxpu=1.2 model=1 kW=4.530943241329597 kvar=1.22568816537114 Phases=1 yearly=res_kw_908_pu

New Load.load_p1rlv2110_1 conn=wye bus1=p1rlv2110.1 kV=0.12 Vminpu=0.8 Vmaxpu=1.2 model=1 kW=2.9898249364160714 kvar=0.2983164502279761 Phases=1 yearly=res_kw_1070_pu

New Load.load_p1rlv2110_2 conn=wye bus1=p1rlv2110.2 kV=0.12 Vminpu=0.8 Vmaxpu=1.2 model=1 kW=2.9898249364160714 kvar=0.2983164502279761 Phases=1 yearly=res_kw_1070_pu

New Load.load_p1rlv2111_1 conn=wye bus1=p1rlv2111.1 kV=0.12 Vminpu=0.8 Vmaxpu=1.2 model=1 kW=5.6593015111322105 kvar=1.2761251920573724 Phases=1 yearly=res_kw_324_pu

New Load.load_p1rlv2111_2 conn=wye bus1=p1rlv2111.2 kV=0.12 Vminpu=0.8 Vmaxpu=1.2 model=1 kW=5.6593015111322105 kvar=1.2761251920573724 Phases=1 yearly=res_kw_324_pu

New Load.load_p1rlv2112_1 conn=wye bus1=p1rlv2112.1 kV=0.12 Vminpu=0.8 Vmaxpu=1.2 model=1 kW=3.6844020253442458 kvar=1.4451491397155931 Phases=1 yearly=res_kw_1258_pu

New Load.load_p1rlv2112_2 conn=wye bus1=p1rlv2112.2 kV=0.12 Vminpu=0.8 Vmaxpu=1.2 model=1 kW=3.6844020253442458 kvar=1.4451491397155931 Phases=1 yearly=res_kw_1258_pu

New Load.load_p1rlv2113_1 conn=wye bus1=p1rlv2113.1 kV=0.12 Vminpu=0.8 Vmaxpu=1.2 model=1 kW=1.07594874218897 kvar=0.4942830176942115 Phases=1 yearly=res_kw_366_pu

New Load.load_p1rlv2113_2 conn=wye bus1=p1rlv2113.2 kV=0.12 Vminpu=0.8 Vmaxpu=1.2 model=1 kW=1.07594874218897 kvar=0.4942830176942115 Phases=1 yearly=res_kw_366_pu

New Load.load_p1rlv2114_1 conn=wye bus1=p1rlv2114.1 kV=0.12 Vminpu=0.8 Vmaxpu=1.2 model=1 kW=2.623267981089487 kvar=1.212519304398851 Phases=1 yearly=res_kw_452_pu

New Load.load_p1rlv2114_2 conn=wye bus1=p1rlv2114.2 kV=0.12 Vminpu=0.8 Vmaxpu=1.2 model=1 kW=2.623267981089487 kvar=1.212519304398851 Phases=1 yearly=res_kw_452_pu

New Load.load_p1rlv2115_1 conn=wye bus1=p1rlv2115.1 kV=0.12 Vminpu=0.8 Vmaxpu=1.2 model=1 kW=4.792624300749482 kvar=1.1139407265067676 Phases=1 yearly=res_kw_898_pu

New Load.load_p1rlv2115_2 conn=wye bus1=p1rlv2115.2 kV=0.12 Vminpu=0.8 Vmaxpu=1.2 model=1 kW=4.792624300749482 kvar=1.1139407265067676 Phases=1 yearly=res_kw_898_pu

New Load.load_p1rlv2116_1 conn=wye bus1=p1rlv2116.1 kV=0.12 Vminpu=0.8 Vmaxpu=1.2 model=1 kW=1.07594874218897 kvar=0.4942830176942115 Phases=1 yearly=res_kw_366_pu

New Load.load_p1rlv2116_2 conn=wye bus1=p1rlv2116.2 kV=0.12 Vminpu=0.8 Vmaxpu=1.2 model=1 kW=1.07594874218897 kvar=0.4942830176942115 Phases=1 yearly=res_kw_366_pu

New Load.load_p1rlv2117_1 conn=wye bus1=p1rlv2117.1 kV=0.12 Vminpu=0.8 Vmaxpu=1.2 model=1 kW=3.9060227283575606 kvar=0.8578020352767629 Phases=1 yearly=res_kw_278_pu

New Load.load_p1rlv2117_2 conn=wye bus1=p1rlv2117.2 kV=0.12 Vminpu=0.8 Vmaxpu=1.2 model=1 kW=3.9060227283575606 kvar=0.8578020352767629 Phases=1 yearly=res_kw_278_pu

New Load.load_p1rlv2118_1 conn=wye bus1=p1rlv2118.1 kV=0.12 Vminpu=0.8 Vmaxpu=1.2 model=1 kW=2.40000228705824 kvar=1.0173787262529668 Phases=1 yearly=res_kw_1205_pu

New Load.load_p1rlv2118_2 conn=wye bus1=p1rlv2118.2 kV=0.12 Vminpu=0.8 Vmaxpu=1.2 model=1 kW=2.40000228705824 kvar=1.0173787262529668 Phases=1 yearly=res_kw_1205_pu

New Load.load_p1rlv2119_1 conn=wye bus1=p1rlv2119.1 kV=0.12 Vminpu=0.8 Vmaxpu=1.2 model=1 kW=4.278318909946325 kvar=1.3258964507916957 Phases=1 yearly=res_kw_1246_pu

New Load.load_p1rlv2119_2 conn=wye bus1=p1rlv2119.2 kV=0.12 Vminpu=0.8 Vmaxpu=1.2 model=1 kW=4.278318909946325 kvar=1.3258964507916957 Phases=1 yearly=res_kw_1246_pu

New Load.load_p1rlv2120_1 conn=wye bus1=p1rlv2120.1 kV=0.12 Vminpu=0.8 Vmaxpu=1.2 model=1 kW=9.188058575942842 kvar=1.4142394215506044 Phases=1 yearly=res_kw_1226_pu

New Load.load_p1rlv2120_2 conn=wye bus1=p1rlv2120.2 kV=0.12 Vminpu=0.8 Vmaxpu=1.2 model=1 kW=9.188058575942842 kvar=1.4142394215506044 Phases=1 yearly=res_kw_1226_pu

New Load.load_p1rlv2121_1 conn=wye bus1=p1rlv2121.1 kV=0.12 Vminpu=0.8 Vmaxpu=1.2 model=1 kW=4.897278139879629 kvar=1.0793580648076895 Phases=1 yearly=res_kw_645_pu

New Load.load_p1rlv2121_2 conn=wye bus1=p1rlv2121.2 kV=0.12 Vminpu=0.8 Vmaxpu=1.2 model=1 kW=4.897278139879629 kvar=1.0793580648076895 Phases=1 yearly=res_kw_645_pu

New Load.load_p1rlv2122_1 conn=wye bus1=p1rlv2122.1 kV=0.12 Vminpu=0.8 Vmaxpu=1.2 model=1 kW=3.8748715750127736 kvar=1.5614372175332516 Phases=1 yearly=res_kw_517_pu

New Load.load_p1rlv2122_2 conn=wye bus1=p1rlv2122.2 kV=0.12 Vminpu=0.8 Vmaxpu=1.2 model=1 kW=3.8748715750127736 kvar=1.5614372175332516 Phases=1 yearly=res_kw_517_pu

New Load.load_p1rlv2123_1 conn=wye bus1=p1rlv2123.1 kV=0.12 Vminpu=0.8 Vmaxpu=1.2 model=1 kW=2.40000228705824 kvar=1.0173787262529668 Phases=1 yearly=res_kw_1205_pu

New Load.load_p1rlv2123_2 conn=wye bus1=p1rlv2123.2 kV=0.12 Vminpu=0.8 Vmaxpu=1.2 model=1 kW=2.40000228705824 kvar=1.0173787262529668 Phases=1 yearly=res_kw_1205_pu

New Load.load_p1rlv2124_1 conn=wye bus1=p1rlv2124.1 kV=0.12 Vminpu=0.8 Vmaxpu=1.2 model=1 kW=3.3701610259235064 kvar=1.065454990641787 Phases=1 yearly=res_kw_1037_pu

New Load.load_p1rlv2124_2 conn=wye bus1=p1rlv2124.2 kV=0.12 Vminpu=0.8 Vmaxpu=1.2 model=1 kW=3.3701610259235064 kvar=1.065454990641787 Phases=1 yearly=res_kw_1037_pu

New Load.load_p1rlv2125_1 conn=wye bus1=p1rlv2125.1 kV=0.12 Vminpu=0.8 Vmaxpu=1.2 model=1 kW=4.817618468644212 kvar=1.1350426223715635 Phases=1 yearly=res_kw_843_pu

New Load.load_p1rlv2125_2 conn=wye bus1=p1rlv2125.2 kV=0.12 Vminpu=0.8 Vmaxpu=1.2 model=1 kW=4.817618468644212 kvar=1.1350426223715635 Phases=1 yearly=res_kw_843_pu

New Load.load_p1rlv2126_1 conn=wye bus1=p1rlv2126.1 kV=0.12 Vminpu=0.8 Vmaxpu=1.2 model=1 kW=5.020630418662337 kvar=1.4660260271132275 Phases=1 yearly=res_kw_664_pu

New Load.load_p1rlv2126_2 conn=wye bus1=p1rlv2126.2 kV=0.12 Vminpu=0.8 Vmaxpu=1.2 model=1 kW=5.020630418662337 kvar=1.4660260271132275 Phases=1 yearly=res_kw_664_pu

New Load.load_p1rlv2127_1 conn=wye bus1=p1rlv2127.1 kV=0.12 Vminpu=0.8 Vmaxpu=1.2 model=1 kW=4.616693376528782 kvar=1.2150674100412684 Phases=1 yearly=res_kw_197_pu

New Load.load_p1rlv2127_2 conn=wye bus1=p1rlv2127.2 kV=0.12 Vminpu=0.8 Vmaxpu=1.2 model=1 kW=4.616693376528782 kvar=1.2150674100412684 Phases=1 yearly=res_kw_197_pu

New Load.load_p1rlv2128_1 conn=wye bus1=p1rlv2128.1 kV=0.12 Vminpu=0.8 Vmaxpu=1.2 model=1 kW=2.40000228705824 kvar=1.0173787262529668 Phases=1 yearly=res_kw_1205_pu

New Load.load_p1rlv2128_2 conn=wye bus1=p1rlv2128.2 kV=0.12 Vminpu=0.8 Vmaxpu=1.2 model=1 kW=2.40000228705824 kvar=1.0173787262529668 Phases=1 yearly=res_kw_1205_pu

New Load.load_p1rlv2129_1 conn=wye bus1=p1rlv2129.1 kV=0.12 Vminpu=0.8 Vmaxpu=1.2 model=1 kW=4.817618468644212 kvar=1.1350426223715635 Phases=1 yearly=res_kw_843_pu

New Load.load_p1rlv2129_2 conn=wye bus1=p1rlv2129.2 kV=0.12 Vminpu=0.8 Vmaxpu=1.2 model=1 kW=4.817618468644212 kvar=1.1350426223715635 Phases=1 yearly=res_kw_843_pu

New Load.load_p1rlv2130_1 conn=wye bus1=p1rlv2130.1 kV=0.12 Vminpu=0.8 Vmaxpu=1.2 model=1 kW=3.469755020859998 kvar=0.8941520384931253 Phases=1 yearly=res_kw_4_pu

New Load.load_p1rlv2130_2 conn=wye bus1=p1rlv2130.2 kV=0.12 Vminpu=0.8 Vmaxpu=1.2 model=1 kW=3.469755020859998 kvar=0.8941520384931253 Phases=1 yearly=res_kw_4_pu

New Load.load_p1rlv2131_1 conn=wye bus1=p1rlv2131.1 kV=0.12 Vminpu=0.8 Vmaxpu=1.2 model=1 kW=4.47171304939181 kvar=1.1676103385976955 Phases=1 yearly=res_kw_627_pu

New Load.load_p1rlv2131_2 conn=wye bus1=p1rlv2131.2 kV=0.12 Vminpu=0.8 Vmaxpu=1.2 model=1 kW=4.47171304939181 kvar=1.1676103385976955 Phases=1 yearly=res_kw_627_pu

New Load.load_p1rlv2132_1 conn=wye bus1=p1rlv2132.1 kV=0.12 Vminpu=0.8 Vmaxpu=1.2 model=1 kW=4.879951297044161 kvar=1.5836330665665468 Phases=1 yearly=res_kw_985_pu

New Load.load_p1rlv2132_2 conn=wye bus1=p1rlv2132.2 kV=0.12 Vminpu=0.8 Vmaxpu=1.2 model=1 kW=4.879951297044161 kvar=1.5836330665665468 Phases=1 yearly=res_kw_985_pu

New Load.load_p1rlv2133_1 conn=wye bus1=p1rlv2133.1 kV=0.12 Vminpu=0.8 Vmaxpu=1.2 model=1 kW=3.469755020859998 kvar=0.8941520384931253 Phases=1 yearly=res_kw_4_pu

New Load.load_p1rlv2133_2 conn=wye bus1=p1rlv2133.2 kV=0.12 Vminpu=0.8 Vmaxpu=1.2 model=1 kW=3.469755020859998 kvar=0.8941520384931253 Phases=1 yearly=res_kw_4_pu

New Load.load_p1rlv2134_1 conn=wye bus1=p1rlv2134.1 kV=0.12 Vminpu=0.8 Vmaxpu=1.2 model=1 kW=4.788649591238137 kvar=1.023651375705972 Phases=1 yearly=res_kw_512_pu

New Load.load_p1rlv2134_2 conn=wye bus1=p1rlv2134.2 kV=0.12 Vminpu=0.8 Vmaxpu=1.2 model=1 kW=4.788649591238137 kvar=1.023651375705972 Phases=1 yearly=res_kw_512_pu

New Load.load_p1rlv2135_1 conn=wye bus1=p1rlv2135.1 kV=0.12 Vminpu=0.8 Vmaxpu=1.2 model=1 kW=3.629714039262861 kvar=1.2034402112399032 Phases=1 yearly=res_kw_203_pu

New Load.load_p1rlv2135_2 conn=wye bus1=p1rlv2135.2 kV=0.12 Vminpu=0.8 Vmaxpu=1.2 model=1 kW=3.629714039262861 kvar=1.2034402112399032 Phases=1 yearly=res_kw_203_pu

New Load.load_p1rlv2136_1 conn=wye bus1=p1rlv2136.1 kV=0.12 Vminpu=0.8 Vmaxpu=1.2 model=1 kW=2.40000228705824 kvar=1.0173787262529668 Phases=1 yearly=res_kw_1205_pu

New Load.load_p1rlv2136_2 conn=wye bus1=p1rlv2136.2 kV=0.12 Vminpu=0.8 Vmaxpu=1.2 model=1 kW=2.40000228705824 kvar=1.0173787262529668 Phases=1 yearly=res_kw_1205_pu

New Load.load_p1rlv2137_1 conn=wye bus1=p1rlv2137.1 kV=0.12 Vminpu=0.8 Vmaxpu=1.2 model=1 kW=4.7808294278431465 kvar=0.6499483324233782 Phases=1 yearly=res_kw_416_pu

New Load.load_p1rlv2137_2 conn=wye bus1=p1rlv2137.2 kV=0.12 Vminpu=0.8 Vmaxpu=1.2 model=1 kW=4.7808294278431465 kvar=0.6499483324233782 Phases=1 yearly=res_kw_416_pu

New Load.load_p1rlv2138_1 conn=wye bus1=p1rlv2138.1 kV=0.12 Vminpu=0.8 Vmaxpu=1.2 model=1 kW=3.3701610259235064 kvar=1.065454990641787 Phases=1 yearly=res_kw_1037_pu

New Load.load_p1rlv2138_2 conn=wye bus1=p1rlv2138.2 kV=0.12 Vminpu=0.8 Vmaxpu=1.2 model=1 kW=3.3701610259235064 kvar=1.065454990641787 Phases=1 yearly=res_kw_1037_pu

New Load.load_p1rlv2139_1 conn=wye bus1=p1rlv2139.1 kV=0.12 Vminpu=0.8 Vmaxpu=1.2 model=1 kW=5.077964450618387 kvar=1.0236236527709202 Phases=1 yearly=res_kw_283_pu

New Load.load_p1rlv2139_2 conn=wye bus1=p1rlv2139.2 kV=0.12 Vminpu=0.8 Vmaxpu=1.2 model=1 kW=5.077964450618387 kvar=1.0236236527709202 Phases=1 yearly=res_kw_283_pu

New Load.load_p1rlv2140_1 conn=wye bus1=p1rlv2140.1 kV=0.12 Vminpu=0.8 Vmaxpu=1.2 model=1 kW=10.375628907780863 kvar=4.616486224330442 Phases=1 yearly=res_kw_1267_pu

New Load.load_p1rlv2140_2 conn=wye bus1=p1rlv2140.2 kV=0.12 Vminpu=0.8 Vmaxpu=1.2 model=1 kW=10.375628907780863 kvar=4.616486224330442 Phases=1 yearly=res_kw_1267_pu

New Load.load_p1rlv2141_1 conn=wye bus1=p1rlv2141.1 kV=0.12 Vminpu=0.8 Vmaxpu=1.2 model=1 kW=2.40000228705824 kvar=1.0173787262529668 Phases=1 yearly=res_kw_1205_pu

New Load.load_p1rlv2141_2 conn=wye bus1=p1rlv2141.2 kV=0.12 Vminpu=0.8 Vmaxpu=1.2 model=1 kW=2.40000228705824 kvar=1.0173787262529668 Phases=1 yearly=res_kw_1205_pu

New Load.load_p1rlv2142_1 conn=wye bus1=p1rlv2142.1 kV=0.12 Vminpu=0.8 Vmaxpu=1.2 model=1 kW=8.252260942121131 kvar=1.0100409923226146 Phases=1 yearly=res_kw_401_pu

New Load.load_p1rlv2142_2 conn=wye bus1=p1rlv2142.2 kV=0.12 Vminpu=0.8 Vmaxpu=1.2 model=1 kW=8.252260942121131 kvar=1.0100409923226146 Phases=1 yearly=res_kw_401_pu

New Load.load_p1rlv2143_1 conn=wye bus1=p1rlv2143.1 kV=0.12 Vminpu=0.8 Vmaxpu=1.2 model=1 kW=4.78815623948431 kvar=1.2110296754961107 Phases=1 yearly=res_kw_842_pu

New Load.load_p1rlv2143_2 conn=wye bus1=p1rlv2143.2 kV=0.12 Vminpu=0.8 Vmaxpu=1.2 model=1 kW=4.78815623948431 kvar=1.2110296754961107 Phases=1 yearly=res_kw_842_pu

New Load.load_p1rlv2144_1 conn=wye bus1=p1rlv2144.1 kV=0.12 Vminpu=0.8 Vmaxpu=1.2 model=1 kW=14.404204781856079 kvar=3.036808033672637 Phases=1 yearly=res_kw_560_pu

New Load.load_p1rlv2144_2 conn=wye bus1=p1rlv2144.2 kV=0.12 Vminpu=0.8 Vmaxpu=1.2 model=1 kW=14.404204781856079 kvar=3.036808033672637 Phases=1 yearly=res_kw_560_pu

New Load.load_p1rlv2145_1 conn=wye bus1=p1rlv2144.1 kV=0.12 Vminpu=0.8 Vmaxpu=1.2 model=1 kW=4.708977442537992 kvar=0.5396715316626463 Phases=1 yearly=res_kw_1138_pu

New Load.load_p1rlv2145_2 conn=wye bus1=p1rlv2144.2 kV=0.12 Vminpu=0.8 Vmaxpu=1.2 model=1 kW=4.708977442537992 kvar=0.5396715316626463 Phases=1 yearly=res_kw_1138_pu

New Load.load_p1rlv2146_1 conn=wye bus1=p1rlv2146.1 kV=0.12 Vminpu=0.8 Vmaxpu=1.2 model=1 kW=2.605021030189827 kvar=1.0007509371876184 Phases=1 yearly=res_kw_24_pu

New Load.load_p1rlv2146_2 conn=wye bus1=p1rlv2146.2 kV=0.12 Vminpu=0.8 Vmaxpu=1.2 model=1 kW=2.605021030189827 kvar=1.0007509371876184 Phases=1 yearly=res_kw_24_pu

New Load.load_p1rlv2147_1 conn=wye bus1=p1rlv2147.1 kV=0.12 Vminpu=0.8 Vmaxpu=1.2 model=1 kW=3.629714039262861 kvar=1.2034402112399032 Phases=1 yearly=res_kw_203_pu

New Load.load_p1rlv2147_2 conn=wye bus1=p1rlv2147.2 kV=0.12 Vminpu=0.8 Vmaxpu=1.2 model=1 kW=3.629714039262861 kvar=1.2034402112399032 Phases=1 yearly=res_kw_203_pu

New Load.load_p1rlv2148_1 conn=wye bus1=p1rlv2148.1 kV=0.12 Vminpu=0.8 Vmaxpu=1.2 model=1 kW=8.241940830746106 kvar=1.2752827350596716 Phases=1 yearly=res_kw_394_pu

New Load.load_p1rlv2148_2 conn=wye bus1=p1rlv2148.2 kV=0.12 Vminpu=0.8 Vmaxpu=1.2 model=1 kW=8.241940830746106 kvar=1.2752827350596716 Phases=1 yearly=res_kw_394_pu

New Load.load_p1rlv2149_1 conn=wye bus1=p1rlv2149.1 kV=0.12 Vminpu=0.8 Vmaxpu=1.2 model=1 kW=1.07594874218897 kvar=0.4942830176942115 Phases=1 yearly=res_kw_366_pu

New Load.load_p1rlv2149_2 conn=wye bus1=p1rlv2149.2 kV=0.12 Vminpu=0.8 Vmaxpu=1.2 model=1 kW=1.07594874218897 kvar=0.4942830176942115 Phases=1 yearly=res_kw_366_pu

New Load.load_p1rlv2150_1 conn=wye bus1=p1rlv2149.1 kV=0.12 Vminpu=0.8 Vmaxpu=1.2 model=1 kW=5.675346369339635 kvar=1.238985226090579 Phases=1 yearly=res_kw_1186_pu

New Load.load_p1rlv2150_2 conn=wye bus1=p1rlv2149.2 kV=0.12 Vminpu=0.8 Vmaxpu=1.2 model=1 kW=5.675346369339635 kvar=1.238985226090579 Phases=1 yearly=res_kw_1186_pu

New Load.load_p1rlv2151_1 conn=wye bus1=p1rlv2151.1 kV=0.12 Vminpu=0.8 Vmaxpu=1.2 model=1 kW=2.1894046505184286 kvar=0.7281040757251952 Phases=1 yearly=res_kw_1042_pu

New Load.load_p1rlv2151_2 conn=wye bus1=p1rlv2151.2 kV=0.12 Vminpu=0.8 Vmaxpu=1.2 model=1 kW=2.1894046505184286 kvar=0.7281040757251952 Phases=1 yearly=res_kw_1042_pu

New Load.load_p1rlv2152_1 conn=wye bus1=p1rlv2152.1 kV=0.12 Vminpu=0.8 Vmaxpu=1.2 model=1 kW=5.1496269559453545 kvar=1.5323145223091108 Phases=1 yearly=com_kw_14231_pu

New Load.load_p1rlv2152_2 conn=wye bus1=p1rlv2152.2 kV=0.12 Vminpu=0.8 Vmaxpu=1.2 model=1 kW=5.1496269559453545 kvar=1.5323145223091108 Phases=1 yearly=com_kw_14231_pu

New Load.load_p1rlv2153 conn=wye bus1=p1rlv2153.1.2.3 kV=0.48 Vminpu=0.8 Vmaxpu=1.2 model=1 kW=29.06847666053555 kvar=5.848529560450256 Phases=3 yearly=com_kw_14619_pu

New Load.load_p1rlv2154 conn=wye bus1=p1rlv2153.1.2.3 kV=0.48 Vminpu=0.8 Vmaxpu=1.2 model=1 kW=18.65001850399677 kvar=4.915261169647591 Phases=3 yearly=com_kw_14671_pu

New Load.load_p1rlv2155_1 conn=wye bus1=p1rlv2155.1 kV=0.12 Vminpu=0.8 Vmaxpu=1.2 model=1 kW=5.1496269559453545 kvar=1.5323145223091108 Phases=1 yearly=com_kw_14231_pu

New Load.load_p1rlv2155_2 conn=wye bus1=p1rlv2155.2 kV=0.12 Vminpu=0.8 Vmaxpu=1.2 model=1 kW=5.1496269559453545 kvar=1.5323145223091108 Phases=1 yearly=com_kw_14231_pu

New Load.load_p1rlv2156 conn=wye bus1=p1rlv2156.1.2.3 kV=0.48 Vminpu=0.8 Vmaxpu=1.2 model=1 kW=36.34419055562693 kvar=8.611444794393616 Phases=3 yearly=com_kw_13229_pu

New Load.load_p1rlv2157_1 conn=wye bus1=p1rlv2157.1 kV=0.12 Vminpu=0.8 Vmaxpu=1.2 model=1 kW=5.2700301388011015 kvar=0.34790018828686164 Phases=1 yearly=com_kw_13502_pu

New Load.load_p1rlv2157_2 conn=wye bus1=p1rlv2157.2 kV=0.12 Vminpu=0.8 Vmaxpu=1.2 model=1 kW=5.2700301388011015 kvar=0.34790018828686164 Phases=1 yearly=com_kw_13502_pu

New Load.load_p1rlv2158 conn=wye bus1=p1rlv2158.1.2.3 kV=0.48 Vminpu=0.8 Vmaxpu=1.2 model=1 kW=35.575751352084666 kvar=8.679058106481836 Phases=3 yearly=com_kw_13354_pu

New Load.load_p1rlv2159_1 conn=wye bus1=p1rlv2159.1 kV=0.12 Vminpu=0.8 Vmaxpu=1.2 model=1 kW=2.134373343667251 kvar=0.5986590434975299 Phases=1 yearly=com_kw_14612_pu

New Load.load_p1rlv2159_2 conn=wye bus1=p1rlv2159.2 kV=0.12 Vminpu=0.8 Vmaxpu=1.2 model=1 kW=2.134373343667251 kvar=0.5986590434975299 Phases=1 yearly=com_kw_14612_pu

New Load.load_p1rlv2160 conn=wye bus1=p1rlv2160.1.2.3 kV=0.48 Vminpu=0.8 Vmaxpu=1.2 model=1 kW=36.466061547803925 kvar=8.7542850081235 Phases=3 yearly=com_kw_14393_pu

New Load.load_p1rlv2161 conn=wye bus1=p1rlv2161.1.2.3 kV=0.48 Vminpu=0.8 Vmaxpu=1.2 model=1 kW=51.99338843351495 kvar=2.319560551526166 Phases=3 yearly=com_kw_14574_pu

New Load.load_p1rlv2162_1 conn=wye bus1=p1rlv2162.1 kV=0.12 Vminpu=0.8 Vmaxpu=1.2 model=1 kW=5.1496269559453545 kvar=1.5323145223091108 Phases=1 yearly=com_kw_14231_pu

New Load.load_p1rlv2162_2 conn=wye bus1=p1rlv2162.2 kV=0.12 Vminpu=0.8 Vmaxpu=1.2 model=1 kW=5.1496269559453545 kvar=1.5323145223091108 Phases=1 yearly=com_kw_14231_pu

New Load.load_p1rlv2163 conn=wye bus1=p1rlv2163.1.2.3 kV=0.48 Vminpu=0.8 Vmaxpu=1.2 model=1 kW=22.152047737869896 kvar=6.510834234174965 Phases=3 yearly=com_kw_14325_pu

New Load.load_p1rlv2164_1 conn=wye bus1=p1rlv2164.1 kV=0.12 Vminpu=0.8 Vmaxpu=1.2 model=1 kW=2.916803644387601 kvar=0.11499518252231355 Phases=1 yearly=res_kw_1094_pu

New Load.load_p1rlv2164_2 conn=wye bus1=p1rlv2164.2 kV=0.12 Vminpu=0.8 Vmaxpu=1.2 model=1 kW=2.916803644387601 kvar=0.11499518252231355 Phases=1 yearly=res_kw_1094_pu

New Load.load_p1rlv2165_1 conn=wye bus1=p1rlv2165.1 kV=0.12 Vminpu=0.8 Vmaxpu=1.2 model=1 kW=5.2017816712134515 kvar=0.6724962022357446 Phases=1 yearly=res_kw_469_pu

New Load.load_p1rlv2165_2 conn=wye bus1=p1rlv2165.2 kV=0.12 Vminpu=0.8 Vmaxpu=1.2 model=1 kW=5.2017816712134515 kvar=0.6724962022357446 Phases=1 yearly=res_kw_469_pu

New Load.load_p1rlv2166_1 conn=wye bus1=p1rlv2166.1 kV=0.12 Vminpu=0.8 Vmaxpu=1.2 model=1 kW=6.141776037796917 kvar=0.8497294363427149 Phases=1 yearly=res_kw_923_pu

New Load.load_p1rlv2166_2 conn=wye bus1=p1rlv2166.2 kV=0.12 Vminpu=0.8 Vmaxpu=1.2 model=1 kW=6.141776037796917 kvar=0.8497294363427149 Phases=1 yearly=res_kw_923_pu

New Load.load_p1rlv2167_1 conn=wye bus1=p1rlv2167.1 kV=0.12 Vminpu=0.8 Vmaxpu=1.2 model=1 kW=4.16464238338737 kvar=0.9759614008792458 Phases=1 yearly=res_kw_968_pu

New Load.load_p1rlv2167_2 conn=wye bus1=p1rlv2167.2 kV=0.12 Vminpu=0.8 Vmaxpu=1.2 model=1 kW=4.16464238338737 kvar=0.9759614008792458 Phases=1 yearly=res_kw_968_pu

New Load.load_p1rlv2168_1 conn=wye bus1=p1rlv2168.1 kV=0.12 Vminpu=0.8 Vmaxpu=1.2 model=1 kW=7.088530083600876 kvar=2.6134476319600712 Phases=1 yearly=res_kw_267_pu

New Load.load_p1rlv2168_2 conn=wye bus1=p1rlv2168.2 kV=0.12 Vminpu=0.8 Vmaxpu=1.2 model=1 kW=7.088530083600876 kvar=2.6134476319600712 Phases=1 yearly=res_kw_267_pu

New Load.load_p1rlv2169_1 conn=wye bus1=p1rlv2169.1 kV=0.12 Vminpu=0.8 Vmaxpu=1.2 model=1 kW=2.605021030189827 kvar=1.0007509371876184 Phases=1 yearly=res_kw_24_pu

New Load.load_p1rlv2169_2 conn=wye bus1=p1rlv2169.2 kV=0.12 Vminpu=0.8 Vmaxpu=1.2 model=1 kW=2.605021030189827 kvar=1.0007509371876184 Phases=1 yearly=res_kw_24_pu

New Load.load_p1rlv2170_1 conn=wye bus1=p1rlv2170.1 kV=0.12 Vminpu=0.8 Vmaxpu=1.2 model=1 kW=5.1496269559453545 kvar=1.5323145223091108 Phases=1 yearly=com_kw_14231_pu

New Load.load_p1rlv2170_2 conn=wye bus1=p1rlv2170.2 kV=0.12 Vminpu=0.8 Vmaxpu=1.2 model=1 kW=5.1496269559453545 kvar=1.5323145223091108 Phases=1 yearly=com_kw_14231_pu

New Load.load_p1rlv2171_1 conn=wye bus1=p1rlv2171.1 kV=0.12 Vminpu=0.8 Vmaxpu=1.2 model=1 kW=4.78815623948431 kvar=1.2110296754961107 Phases=1 yearly=res_kw_842_pu

New Load.load_p1rlv2171_2 conn=wye bus1=p1rlv2171.2 kV=0.12 Vminpu=0.8 Vmaxpu=1.2 model=1 kW=4.78815623948431 kvar=1.2110296754961107 Phases=1 yearly=res_kw_842_pu

New Load.load_p1rlv2172_1 conn=wye bus1=p1rlv2172.1 kV=0.12 Vminpu=0.8 Vmaxpu=1.2 model=1 kW=3.3022463090013963 kvar=0.3558858552969609 Phases=1 yearly=res_kw_236_pu

New Load.load_p1rlv2172_2 conn=wye bus1=p1rlv2172.2 kV=0.12 Vminpu=0.8 Vmaxpu=1.2 model=1 kW=3.3022463090013963 kvar=0.3558858552969609 Phases=1 yearly=res_kw_236_pu

New Load.load_p1rlv2173_1 conn=wye bus1=p1rlv2172.1 kV=0.12 Vminpu=0.8 Vmaxpu=1.2 model=1 kW=2.40000228705824 kvar=1.0173787262529668 Phases=1 yearly=res_kw_1205_pu

New Load.load_p1rlv2173_2 conn=wye bus1=p1rlv2172.2 kV=0.12 Vminpu=0.8 Vmaxpu=1.2 model=1 kW=2.40000228705824 kvar=1.0173787262529668 Phases=1 yearly=res_kw_1205_pu

New Load.load_p1rlv2174_1 conn=wye bus1=p1rlv2174.1 kV=0.12 Vminpu=0.8 Vmaxpu=1.2 model=1 kW=4.817618468644212 kvar=1.1350426223715635 Phases=1 yearly=res_kw_843_pu

New Load.load_p1rlv2174_2 conn=wye bus1=p1rlv2174.2 kV=0.12 Vminpu=0.8 Vmaxpu=1.2 model=1 kW=4.817618468644212 kvar=1.1350426223715635 Phases=1 yearly=res_kw_843_pu

New Load.load_p1rlv2175_1 conn=wye bus1=p1rlv2175.1 kV=0.12 Vminpu=0.8 Vmaxpu=1.2 model=1 kW=3.6844020253442458 kvar=1.4451491397155931 Phases=1 yearly=res_kw_1258_pu

New Load.load_p1rlv2175_2 conn=wye bus1=p1rlv2175.2 kV=0.12 Vminpu=0.8 Vmaxpu=1.2 model=1 kW=3.6844020253442458 kvar=1.4451491397155931 Phases=1 yearly=res_kw_1258_pu

New Load.load_p1rlv2176_1 conn=wye bus1=p1rlv2175.1 kV=0.12 Vminpu=0.8 Vmaxpu=1.2 model=1 kW=3.8748715750127736 kvar=1.5614372175332516 Phases=1 yearly=res_kw_517_pu

New Load.load_p1rlv2176_2 conn=wye bus1=p1rlv2175.2 kV=0.12 Vminpu=0.8 Vmaxpu=1.2 model=1 kW=3.8748715750127736 kvar=1.5614372175332516 Phases=1 yearly=res_kw_517_pu

New Load.load_p1rlv2177_1 conn=wye bus1=p1rlv2177.1 kV=0.12 Vminpu=0.8 Vmaxpu=1.2 model=1 kW=3.4468581914223817 kvar=1.1411197390818253 Phases=1 yearly=res_kw_250_pu

New Load.load_p1rlv2177_2 conn=wye bus1=p1rlv2177.2 kV=0.12 Vminpu=0.8 Vmaxpu=1.2 model=1 kW=3.4468581914223817 kvar=1.1411197390818253 Phases=1 yearly=res_kw_250_pu

New Load.load_p1rlv2178_1 conn=wye bus1=p1rlv2178.1 kV=0.12 Vminpu=0.8 Vmaxpu=1.2 model=1 kW=4.7264639008757365 kvar=1.36553634213978 Phases=1 yearly=res_kw_1220_pu

New Load.load_p1rlv2178_2 conn=wye bus1=p1rlv2178.2 kV=0.12 Vminpu=0.8 Vmaxpu=1.2 model=1 kW=4.7264639008757365 kvar=1.36553634213978 Phases=1 yearly=res_kw_1220_pu

New Load.load_p1rlv2179_1 conn=wye bus1=p1rlv2179.1 kV=0.12 Vminpu=0.8 Vmaxpu=1.2 model=1 kW=1.058232796813655 kvar=0.5181661085767575 Phases=1 yearly=res_kw_226_pu

New Load.load_p1rlv2179_2 conn=wye bus1=p1rlv2179.2 kV=0.12 Vminpu=0.8 Vmaxpu=1.2 model=1 kW=1.058232796813655 kvar=0.5181661085767575 Phases=1 yearly=res_kw_226_pu

New Load.load_p1rlv2180_1 conn=wye bus1=p1rlv2180.1 kV=0.12 Vminpu=0.8 Vmaxpu=1.2 model=1 kW=4.450248527523723 kvar=1.1958923935673411 Phases=1 yearly=res_kw_906_pu

New Load.load_p1rlv2180_2 conn=wye bus1=p1rlv2180.2 kV=0.12 Vminpu=0.8 Vmaxpu=1.2 model=1 kW=4.450248527523723 kvar=1.1958923935673411 Phases=1 yearly=res_kw_906_pu

New Load.load_p1rlv2181_1 conn=wye bus1=p1rlv2181.1 kV=0.12 Vminpu=0.8 Vmaxpu=1.2 model=1 kW=1.07594874218897 kvar=0.4942830176942115 Phases=1 yearly=res_kw_366_pu

New Load.load_p1rlv2181_2 conn=wye bus1=p1rlv2181.2 kV=0.12 Vminpu=0.8 Vmaxpu=1.2 model=1 kW=1.07594874218897 kvar=0.4942830176942115 Phases=1 yearly=res_kw_366_pu

New Load.load_p1rlv2182_1 conn=wye bus1=p1rlv2182.1 kV=0.12 Vminpu=0.8 Vmaxpu=1.2 model=1 kW=3.8748715750127736 kvar=1.5614372175332516 Phases=1 yearly=res_kw_517_pu

New Load.load_p1rlv2182_2 conn=wye bus1=p1rlv2182.2 kV=0.12 Vminpu=0.8 Vmaxpu=1.2 model=1 kW=3.8748715750127736 kvar=1.5614372175332516 Phases=1 yearly=res_kw_517_pu

New Load.load_p1rlv2183_1 conn=wye bus1=p1rlv2183.1 kV=0.12 Vminpu=0.8 Vmaxpu=1.2 model=1 kW=2.9898249364160714 kvar=0.2983164502279761 Phases=1 yearly=res_kw_1070_pu

New Load.load_p1rlv2183_2 conn=wye bus1=p1rlv2183.2 kV=0.12 Vminpu=0.8 Vmaxpu=1.2 model=1 kW=2.9898249364160714 kvar=0.2983164502279761 Phases=1 yearly=res_kw_1070_pu

New Load.load_p1rlv2184_1 conn=wye bus1=p1rlv2183.1 kV=0.12 Vminpu=0.8 Vmaxpu=1.2 model=1 kW=7.04256695844029 kvar=1.659740351203588 Phases=1 yearly=res_kw_707_pu

New Load.load_p1rlv2184_2 conn=wye bus1=p1rlv2183.2 kV=0.12 Vminpu=0.8 Vmaxpu=1.2 model=1 kW=7.04256695844029 kvar=1.659740351203588 Phases=1 yearly=res_kw_707_pu

New Load.load_p1rlv2185_1 conn=wye bus1=p1rlv2185.1 kV=0.12 Vminpu=0.8 Vmaxpu=1.2 model=1 kW=1.8883480354683608 kvar=0.7466800149503461 Phases=1 yearly=res_kw_715_pu

New Load.load_p1rlv2185_2 conn=wye bus1=p1rlv2185.2 kV=0.12 Vminpu=0.8 Vmaxpu=1.2 model=1 kW=1.8883480354683608 kvar=0.7466800149503461 Phases=1 yearly=res_kw_715_pu

New Load.load_p1rlv2186_1 conn=wye bus1=p1rlv2186.1 kV=0.12 Vminpu=0.8 Vmaxpu=1.2 model=1 kW=4.78815623948431 kvar=1.2110296754961107 Phases=1 yearly=res_kw_842_pu

New Load.load_p1rlv2186_2 conn=wye bus1=p1rlv2186.2 kV=0.12 Vminpu=0.8 Vmaxpu=1.2 model=1 kW=4.78815623948431 kvar=1.2110296754961107 Phases=1 yearly=res_kw_842_pu

New Load.load_p1rlv2187_1 conn=wye bus1=p1rlv2187.1 kV=0.12 Vminpu=0.8 Vmaxpu=1.2 model=1 kW=2.40000228705824 kvar=1.0173787262529668 Phases=1 yearly=res_kw_1205_pu

New Load.load_p1rlv2187_2 conn=wye bus1=p1rlv2187.2 kV=0.12 Vminpu=0.8 Vmaxpu=1.2 model=1 kW=2.40000228705824 kvar=1.0173787262529668 Phases=1 yearly=res_kw_1205_pu

New Load.load_p1rlv2188 conn=wye bus1=p1rlv2188.1.2.3 kV=0.48 Vminpu=0.8 Vmaxpu=1.2 model=1 kW=33.6598462690562 kvar=7.837669926471887 Phases=3 yearly=com_kw_13719_pu

New Load.load_p1rlv2189_1 conn=wye bus1=p1rlv2189.1 kV=0.12 Vminpu=0.8 Vmaxpu=1.2 model=1 kW=3.4468581914223817 kvar=1.1411197390818253 Phases=1 yearly=res_kw_250_pu

New Load.load_p1rlv2189_2 conn=wye bus1=p1rlv2189.2 kV=0.12 Vminpu=0.8 Vmaxpu=1.2 model=1 kW=3.4468581914223817 kvar=1.1411197390818253 Phases=1 yearly=res_kw_250_pu

New Load.load_p1rlv2190_1 conn=wye bus1=p1rlv2190.1 kV=0.12 Vminpu=0.8 Vmaxpu=1.2 model=1 kW=3.308494316062581 kvar=0.7969773391329138 Phases=1 yearly=res_kw_626_pu

New Load.load_p1rlv2190_2 conn=wye bus1=p1rlv2190.2 kV=0.12 Vminpu=0.8 Vmaxpu=1.2 model=1 kW=3.308494316062581 kvar=0.7969773391329138 Phases=1 yearly=res_kw_626_pu

New Load.load_p1rlv2191_1 conn=wye bus1=p1rlv2191.1 kV=0.12 Vminpu=0.8 Vmaxpu=1.2 model=1 kW=7.088530083600876 kvar=2.6134476319600712 Phases=1 yearly=res_kw_267_pu

New Load.load_p1rlv2191_2 conn=wye bus1=p1rlv2191.2 kV=0.12 Vminpu=0.8 Vmaxpu=1.2 model=1 kW=7.088530083600876 kvar=2.6134476319600712 Phases=1 yearly=res_kw_267_pu

New Load.load_p1rlv2192_1 conn=wye bus1=p1rlv2192.1 kV=0.12 Vminpu=0.8 Vmaxpu=1.2 model=1 kW=10.375628907780863 kvar=4.616486224330442 Phases=1 yearly=res_kw_1267_pu

New Load.load_p1rlv2192_2 conn=wye bus1=p1rlv2192.2 kV=0.12 Vminpu=0.8 Vmaxpu=1.2 model=1 kW=10.375628907780863 kvar=4.616486224330442 Phases=1 yearly=res_kw_1267_pu

New Load.load_p1rlv2193_1 conn=wye bus1=p1rlv2193.1 kV=0.12 Vminpu=0.8 Vmaxpu=1.2 model=1 kW=4.589231411483642 kvar=0.1871715682789368 Phases=1 yearly=com_kw_13515_pu

New Load.load_p1rlv2193_2 conn=wye bus1=p1rlv2193.2 kV=0.12 Vminpu=0.8 Vmaxpu=1.2 model=1 kW=4.589231411483642 kvar=0.1871715682789368 Phases=1 yearly=com_kw_13515_pu

New Load.load_p1rlv2194_1 conn=wye bus1=p1rlv2194.1 kV=0.12 Vminpu=0.8 Vmaxpu=1.2 model=1 kW=9.358521499301396 kvar=0.9436008203397507 Phases=1 yearly=com_kw_12824_pu

New Load.load_p1rlv2194_2 conn=wye bus1=p1rlv2194.2 kV=0.12 Vminpu=0.8 Vmaxpu=1.2 model=1 kW=9.358521499301396 kvar=0.9436008203397507 Phases=1 yearly=com_kw_12824_pu

New Load.load_p1rlv2195 conn=wye bus1=p1rlv2195.1.2.3 kV=0.48 Vminpu=0.8 Vmaxpu=1.2 model=1 kW=76.87131856754607 kvar=2.7715509801474782 Phases=3 yearly=com_kw_15235_pu

New Load.load_p1rlv2196 conn=wye bus1=p1rlv2196.1.2.3 kV=0.48 Vminpu=0.8 Vmaxpu=1.2 model=1 kW=41.27726434904335 kvar=10.826959957077602 Phases=3 yearly=com_kw_13682_pu

New Load.load_p1rlv2197_1 conn=wye bus1=p1rlv2197.1 kV=0.12 Vminpu=0.8 Vmaxpu=1.2 model=1 kW=1.8914832317680952 kvar=0.4701288429802831 Phases=1 yearly=com_kw_13018_pu

New Load.load_p1rlv2197_2 conn=wye bus1=p1rlv2197.2 kV=0.12 Vminpu=0.8 Vmaxpu=1.2 model=1 kW=1.8914832317680952 kvar=0.4701288429802831 Phases=1 yearly=com_kw_13018_pu

New Load.load_p1rlv2198_1 conn=wye bus1=p1rlv2198.1 kV=0.12 Vminpu=0.8 Vmaxpu=1.2 model=1 kW=1.8914832317680952 kvar=0.4701288429802831 Phases=1 yearly=com_kw_13018_pu

New Load.load_p1rlv2198_2 conn=wye bus1=p1rlv2198.2 kV=0.12 Vminpu=0.8 Vmaxpu=1.2 model=1 kW=1.8914832317680952 kvar=0.4701288429802831 Phases=1 yearly=com_kw_13018_pu

New Load.load_p1rlv2199 conn=wye bus1=p1rlv2199.1.2.3 kV=0.48 Vminpu=0.8 Vmaxpu=1.2 model=1 kW=81.79823368499305 kvar=2.9593382149754444 Phases=3 yearly=com_kw_13398_pu

New Load.load_p1rlv2200_1 conn=wye bus1=p1rlv2200.1 kV=0.12 Vminpu=0.8 Vmaxpu=1.2 model=1 kW=2.7461665936360093 kvar=0.7968618446715426 Phases=1 yearly=com_kw_13088_pu

New Load.load_p1rlv2200_2 conn=wye bus1=p1rlv2200.2 kV=0.12 Vminpu=0.8 Vmaxpu=1.2 model=1 kW=2.7461665936360093 kvar=0.7968618446715426 Phases=1 yearly=com_kw_13088_pu

New Load.load_p1rlv2201_1 conn=wye bus1=p1rlv2201.1 kV=0.12 Vminpu=0.8 Vmaxpu=1.2 model=1 kW=2.465496051676302 kvar=0.5881407747231531 Phases=1 yearly=com_kw_13121_pu
